<?xml version='1.0' encoding='utf-8'?>
<net version="1.16" junctionCornerDetail="5" limitTurnSpeed="5.50" xmlns_xsi="http://www.w3.org/2001/XMLSchema-instance" xsi_noNamespaceSchemaLocation="http://sumo.dlr.de/xsd/net_file.xsd"><type><type id="highway" priority="13" numLanes="3" speed="33.33" /><type id="urban" priority="9" numLanes="2" speed="13.89" /><type id="residential" priority="4" numLanes="1" speed="8.33" /></type><edge id="highway_e1" type="highway" from_node="n1" to="n2"><lane id="highway_e1_0" index="0" speed="13.89" length="2000" /></edge><edge id="highway_e2" type="highway" from_node="n2" to="n3"><lane id="highway_e2_0" index="0" speed="13.89" length="2000" /></edge><edge id="highway_e3" type="highway" from_node="n3" to="n4"><lane id="highway_e3_0" index="0" speed="13.89" length="2000" /></edge><edge id="urban_e1" type="urban" from_node="n5" to="n6"><lane id="urban_e1_0" index="0" speed="13.89" length="1000" /></edge><edge id="urban_e2" type="urban" from_node="n6" to="n7"><lane id="urban_e2_0" index="0" speed="13.89" length="1000" /></edge><edge id="urban_e3" type="urban" from_node="n7" to="n8"><lane id="urban_e3_0" index="0" speed="13.89" length="1000" /></edge><edge id="urban_e4" type="urban" from_node="n8" to="n5"><lane id="urban_e4_0" index="0" speed="13.89" length="1000" /></edge><edge id="res_e1" type="residential" from_node="n9" to="n10"><lane id="res_e1_0" index="0" speed="13.89" length="500" /></edge><edge id="res_e2" type="residential" from_node="n10" to="n11"><lane id="res_e2_0" index="0" speed="13.89" length="500" /></edge><edge id="res_e3" type="residential" from_node="n11" to="n12"><lane id="res_e3_0" index="0" speed="13.89" length="500" /></edge><edge id="res_e4" type="residential" from_node="n12" to="n9"><lane id="res_e4_0" index="0" speed="13.89" length="500" /></edge><edge id="conn_e1" type="urban" from_node="n2" to="n6"><lane id="conn_e1_0" index="0" speed="13.89" length="800" /></edge><edge id="conn_e2" type="urban" from_node="n7" to="n10"><lane id="conn_e2_0" index="0" speed="13.89" length="600" /></edge><junction id="n1" type="priority" x="0" y="0" /><junction id="n2" type="priority" x="2000" y="0" /><junction id="n3" type="priority" x="4000" y="0" /><junction id="n4" type="priority" x="6000" y="0" /><junction id="n5" type="traffic_light" x="500" y="1000" /><junction id="n6" type="traffic_light" x="1500" y="1000" /><junction id="n7" type="traffic_light" x="1500" y="2000" /><junction id="n8" type="traffic_light" x="500" y="2000" /><junction id="n9" type="priority" x="1000" y="2500" /><junction id="n10" type="priority" x="1500" y="2500" /><junction id="n11" type="priority" x="1500" y="3000" /><junction id="n12" type="priority" x="1000" y="3000" /></net>