<?xml version='1.0' encoding='utf-8'?>
<routes xmlns_xsi="http://www.w3.org/2001/XMLSchema-instance" xsi_noNamespaceSchemaLocation="http://sumo.dlr.de/xsd/routes_file.xsd"><vType id="passenger" vClass="passenger" length="5.0" width="2.5" height="1.5" accel="0.5" decel="2.6" sigma="0.5" /><vType id="truck" vClass="truck" length="12.0" width="2.5" height="3.5" accel="0.5" decel="1.3" sigma="0.5" /><vType id="bus" vClass="bus" length="15.0" width="2.5" height="3.0" accel="0.5" decel="1.2" sigma="0.5" /><route id="highway_route" edges="highway_e1 highway_e2 highway_e3" /><route id="urban_route" edges="urban_e1 urban_e2 urban_e3 urban_e4" /><route id="residential_route" edges="res_e1 res_e2 res_e3 res_e4" /><route id="mixed_route1" edges="highway_e1 conn_e1 urban_e2 urban_e3" /><route id="mixed_route2" edges="urban_e1 conn_e2 res_e2 res_e3" /><vehicle id="fl_client_0" type="passenger" route="highway_route" depart="0" departSpeed="max"><param key="fl.client_id" value="client_0" /><param key="fl.data_samples" value="456" /><param key="fl.reputation" value="0.5" /></vehicle><vehicle id="fl_client_1" type="passenger" route="highway_route" depart="30" departSpeed="max"><param key="fl.client_id" value="client_1" /><param key="fl.data_samples" value="247" /><param key="fl.reputation" value="0.5" /></vehicle><vehicle id="fl_client_2" type="passenger" route="highway_route" depart="60" departSpeed="max"><param key="fl.client_id" value="client_2" /><param key="fl.data_samples" value="141" /><param key="fl.reputation" value="0.5" /></vehicle><vehicle id="fl_client_3" type="passenger" route="highway_route" depart="90" departSpeed="max"><param key="fl.client_id" value="client_3" /><param key="fl.data_samples" value="162" /><param key="fl.reputation" value="0.5" /></vehicle><vehicle id="fl_client_4" type="passenger" route="highway_route" depart="120" departSpeed="max"><param key="fl.client_id" value="client_4" /><param key="fl.data_samples" value="445" /><param key="fl.reputation" value="0.5" /></vehicle><vehicle id="fl_client_5" type="passenger" route="highway_route" depart="150" departSpeed="max"><param key="fl.client_id" value="client_5" /><param key="fl.data_samples" value="232" /><param key="fl.reputation" value="0.5" /></vehicle><vehicle id="fl_client_6" type="passenger" route="highway_route" depart="180" departSpeed="max"><param key="fl.client_id" value="client_6" /><param key="fl.data_samples" value="254" /><param key="fl.reputation" value="0.5" /></vehicle><vehicle id="fl_client_7" type="passenger" route="highway_route" depart="210" departSpeed="max"><param key="fl.client_id" value="client_7" /><param key="fl.data_samples" value="282" /><param key="fl.reputation" value="0.5" /></vehicle><vehicle id="fl_client_8" type="passenger" route="highway_route" depart="240" departSpeed="max"><param key="fl.client_id" value="client_8" /><param key="fl.data_samples" value="252" /><param key="fl.reputation" value="0.5" /></vehicle><vehicle id="fl_client_9" type="passenger" route="highway_route" depart="270" departSpeed="max"><param key="fl.client_id" value="client_9" /><param key="fl.data_samples" value="499" /><param key="fl.reputation" value="0.5" /></vehicle><vehicle id="fl_client_10" type="passenger" route="highway_route" depart="300" departSpeed="max"><param key="fl.client_id" value="client_10" /><param key="fl.data_samples" value="404" /><param key="fl.reputation" value="0.5" /></vehicle><vehicle id="fl_client_11" type="passenger" route="highway_route" depart="330" departSpeed="max"><param key="fl.client_id" value="client_11" /><param key="fl.data_samples" value="145" /><param key="fl.reputation" value="0.5" /></vehicle><vehicle id="fl_client_12" type="passenger" route="highway_route" depart="360" departSpeed="max"><param key="fl.client_id" value="client_12" /><param key="fl.data_samples" value="277" /><param key="fl.reputation" value="0.5" /></vehicle><vehicle id="fl_client_13" type="passenger" route="highway_route" depart="390" departSpeed="max"><param key="fl.client_id" value="client_13" /><param key="fl.data_samples" value="104" /><param key="fl.reputation" value="0.5" /></vehicle><vehicle id="fl_client_14" type="passenger" route="highway_route" depart="420" departSpeed="max"><param key="fl.client_id" value="client_14" /><param key="fl.data_samples" value="193" /><param key="fl.reputation" value="0.5" /></vehicle><vehicle id="fl_client_15" type="passenger" route="highway_route" depart="450" departSpeed="max"><param key="fl.client_id" value="client_15" /><param key="fl.data_samples" value="410" /><param key="fl.reputation" value="0.5" /></vehicle><vehicle id="fl_client_16" type="passenger" route="highway_route" depart="480" departSpeed="max"><param key="fl.client_id" value="client_16" /><param key="fl.data_samples" value="236" /><param key="fl.reputation" value="0.5" /></vehicle><vehicle id="fl_client_17" type="passenger" route="highway_route" depart="510" departSpeed="max"><param key="fl.client_id" value="client_17" /><param key="fl.data_samples" value="275" /><param key="fl.reputation" value="0.5" /></vehicle><vehicle id="fl_client_18" type="passenger" route="highway_route" depart="540" departSpeed="max"><param key="fl.client_id" value="client_18" /><param key="fl.data_samples" value="123" /><param key="fl.reputation" value="0.5" /></vehicle><vehicle id="fl_client_19" type="passenger" route="highway_route" depart="570" departSpeed="max"><param key="fl.client_id" value="client_19" /><param key="fl.data_samples" value="357" /><param key="fl.reputation" value="0.5" /></vehicle><vehicle id="fl_client_20" type="bus" route="mixed_route1" depart="600" departSpeed="max"><param key="fl.client_id" value="client_20" /><param key="fl.data_samples" value="342" /><param key="fl.reputation" value="0.5" /></vehicle><vehicle id="fl_client_21" type="bus" route="urban_route" depart="630" departSpeed="max"><param key="fl.client_id" value="client_21" /><param key="fl.data_samples" value="333" /><param key="fl.reputation" value="0.5" /></vehicle><vehicle id="fl_client_22" type="passenger" route="mixed_route1" depart="660" departSpeed="max"><param key="fl.client_id" value="client_22" /><param key="fl.data_samples" value="493" /><param key="fl.reputation" value="0.5" /></vehicle><vehicle id="fl_client_23" type="bus" route="urban_route" depart="690" departSpeed="max"><param key="fl.client_id" value="client_23" /><param key="fl.data_samples" value="169" /><param key="fl.reputation" value="0.5" /></vehicle><vehicle id="fl_client_24" type="passenger" route="mixed_route1" depart="720" departSpeed="max"><param key="fl.client_id" value="client_24" /><param key="fl.data_samples" value="206" /><param key="fl.reputation" value="0.5" /></vehicle><vehicle id="fl_client_25" type="bus" route="urban_route" depart="750" departSpeed="max"><param key="fl.client_id" value="client_25" /><param key="fl.data_samples" value="364" /><param key="fl.reputation" value="0.5" /></vehicle><vehicle id="fl_client_26" type="bus" route="urban_route" depart="780" departSpeed="max"><param key="fl.client_id" value="client_26" /><param key="fl.data_samples" value="408" /><param key="fl.reputation" value="0.5" /></vehicle><vehicle id="fl_client_27" type="bus" route="urban_route" depart="810" departSpeed="max"><param key="fl.client_id" value="client_27" /><param key="fl.data_samples" value="271" /><param key="fl.reputation" value="0.5" /></vehicle><vehicle id="fl_client_28" type="passenger" route="mixed_route1" depart="840" departSpeed="max"><param key="fl.client_id" value="client_28" /><param key="fl.data_samples" value="265" /><param key="fl.reputation" value="0.5" /></vehicle><vehicle id="fl_client_29" type="bus" route="urban_route" depart="870" departSpeed="max"><param key="fl.client_id" value="client_29" /><param key="fl.data_samples" value="348" /><param key="fl.reputation" value="0.5" /></vehicle><vehicle id="fl_client_30" type="passenger" route="urban_route" depart="900" departSpeed="max"><param key="fl.client_id" value="client_30" /><param key="fl.data_samples" value="189" /><param key="fl.reputation" value="0.5" /></vehicle><vehicle id="fl_client_31" type="passenger" route="urban_route" depart="930" departSpeed="max"><param key="fl.client_id" value="client_31" /><param key="fl.data_samples" value="475" /><param key="fl.reputation" value="0.5" /></vehicle><vehicle id="fl_client_32" type="passenger" route="mixed_route1" depart="960" departSpeed="max"><param key="fl.client_id" value="client_32" /><param key="fl.data_samples" value="487" /><param key="fl.reputation" value="0.5" /></vehicle><vehicle id="fl_client_33" type="passenger" route="mixed_route1" depart="990" departSpeed="max"><param key="fl.client_id" value="client_33" /><param key="fl.data_samples" value="319" /><param key="fl.reputation" value="0.5" /></vehicle><vehicle id="fl_client_34" type="passenger" route="urban_route" depart="1020" departSpeed="max"><param key="fl.client_id" value="client_34" /><param key="fl.data_samples" value="485" /><param key="fl.reputation" value="0.5" /></vehicle><vehicle id="fl_client_35" type="passenger" route="residential_route" depart="1050" departSpeed="max"><param key="fl.client_id" value="client_35" /><param key="fl.data_samples" value="390" /><param key="fl.reputation" value="0.5" /></vehicle><vehicle id="fl_client_36" type="truck" route="residential_route" depart="1080" departSpeed="max"><param key="fl.client_id" value="client_36" /><param key="fl.data_samples" value="233" /><param key="fl.reputation" value="0.5" /></vehicle><vehicle id="fl_client_37" type="truck" route="residential_route" depart="1110" departSpeed="max"><param key="fl.client_id" value="client_37" /><param key="fl.data_samples" value="178" /><param key="fl.reputation" value="0.5" /></vehicle><vehicle id="fl_client_38" type="passenger" route="residential_route" depart="1140" departSpeed="max"><param key="fl.client_id" value="client_38" /><param key="fl.data_samples" value="408" /><param key="fl.reputation" value="0.5" /></vehicle><vehicle id="fl_client_39" type="passenger" route="residential_route" depart="1170" departSpeed="max"><param key="fl.client_id" value="client_39" /><param key="fl.data_samples" value="255" /><param key="fl.reputation" value="0.5" /></vehicle><vehicle id="fl_client_40" type="passenger" route="mixed_route2" depart="1200" departSpeed="max"><param key="fl.client_id" value="client_40" /><param key="fl.data_samples" value="363" /><param key="fl.reputation" value="0.5" /></vehicle><vehicle id="fl_client_41" type="truck" route="residential_route" depart="1230" departSpeed="max"><param key="fl.client_id" value="client_41" /><param key="fl.data_samples" value="297" /><param key="fl.reputation" value="0.5" /></vehicle><vehicle id="fl_client_42" type="truck" route="residential_route" depart="1260" departSpeed="max"><param key="fl.client_id" value="client_42" /><param key="fl.data_samples" value="100" /><param key="fl.reputation" value="0.5" /></vehicle><vehicle id="fl_client_43" type="passenger" route="residential_route" depart="1290" departSpeed="max"><param key="fl.client_id" value="client_43" /><param key="fl.data_samples" value="360" /><param key="fl.reputation" value="0.5" /></vehicle><vehicle id="fl_client_44" type="passenger" route="mixed_route2" depart="1320" departSpeed="max"><param key="fl.client_id" value="client_44" /><param key="fl.data_samples" value="363" /><param key="fl.reputation" value="0.5" /></vehicle><vehicle id="fl_client_45" type="passenger" route="residential_route" depart="1350" departSpeed="max"><param key="fl.client_id" value="client_45" /><param key="fl.data_samples" value="459" /><param key="fl.reputation" value="0.5" /></vehicle><vehicle id="fl_client_46" type="truck" route="mixed_route2" depart="1380" departSpeed="max"><param key="fl.client_id" value="client_46" /><param key="fl.data_samples" value="279" /><param key="fl.reputation" value="0.5" /></vehicle><vehicle id="fl_client_47" type="passenger" route="residential_route" depart="1410" departSpeed="max"><param key="fl.client_id" value="client_47" /><param key="fl.data_samples" value="400" /><param key="fl.reputation" value="0.5" /></vehicle><vehicle id="fl_client_48" type="truck" route="mixed_route2" depart="1440" departSpeed="max"><param key="fl.client_id" value="client_48" /><param key="fl.data_samples" value="187" /><param key="fl.reputation" value="0.5" /></vehicle><vehicle id="fl_client_49" type="passenger" route="mixed_route2" depart="1470" departSpeed="max"><param key="fl.client_id" value="client_49" /><param key="fl.data_samples" value="128" /><param key="fl.reputation" value="0.5" /></vehicle></routes>