<?xml version='1.0' encoding='utf-8'?>
<additionalFile xmlns_xsi="http://www.w3.org/2001/XMLSchema-instance" xsi_noNamespaceSchemaLocation="http://sumo.dlr.de/xsd/additional_file.xsd"><poi id="RSU_1" type="rsu" x="500" y="500" layer="1" imgFile="rsu_icon.png"><param key="coverage_radius" value="200" /><param key="blockchain_peer" value="peer0.rsu1.vehicular-fl.com" /><param key="fl_aggregator" value="true" /></poi><poi id="RSU_2" type="rsu" x="1500" y="500" layer="1" imgFile="rsu_icon.png"><param key="coverage_radius" value="200" /><param key="blockchain_peer" value="peer0.rsu2.vehicular-fl.com" /><param key="fl_aggregator" value="false" /></poi><poi id="RSU_3" type="rsu" x="1000" y="1500" layer="1" imgFile="rsu_icon.png"><param key="coverage_radius" value="200" /><param key="blockchain_peer" value="peer0.rsu3.vehicular-fl.com" /><param key="fl_aggregator" value="false" /></poi><inductionLoop id="detector_0" lane="highway_e1_0" pos="100" freq="60" file="detector_0.xml" /><inductionLoop id="detector_1" lane="highway_e2_0" pos="100" freq="60" file="detector_1.xml" /><inductionLoop id="detector_2" lane="urban_e1_0" pos="100" freq="60" file="detector_2.xml" /><inductionLoop id="detector_3" lane="urban_e2_0" pos="100" freq="60" file="detector_3.xml" /><inductionLoop id="detector_4" lane="res_e1_0" pos="100" freq="60" file="detector_4.xml" /></additionalFile>